-------------------------------------------------------
          Amber 20 PMEMD                              2020
          -------------------------------------------------------

  [-O]verwriting output

File Assignments:

 Here is the input file:

Heating from 100 to 150
&cntrl
irest=1,ntx=5,
nstlim=20000,dt=0.001,
ntc=2,ntf=2,
ntt=3,gamma_ln=1,
tempi=100,temp0=150,
ntb=0,igb=8,
ntpr=100,ntwr=100,ntwx=100,
cut=999,ntr=1,restraint_wt=10,
restraintmask=':*'
/

Note: ig = -1. Setting random seed to   781692 based on wallclock time in
      microseconds.

--------------------------------------------------------------------------------
   1.  RESOURCE   USE:
--------------------------------------------------------------------------------

 NATOM  =     105 NTYPES =       9 NBONH =      58 MBONA  =      47
 NTHETH =     132 MTHETA =      60 NPHIH =     235 MPHIA  =     167
 NHPARM =       0 NPARM  =       0 NNB   =     569 NRES   =       7
 NBONA  =      47 NTHETA =      60 NPHIA =     167 NUMBND =      25
 NUMANG =      52 NPTRA  =      40 NATYP =      15 NPHB   =       0
 IFBOX  =       0 NMXRS  =      22 IFCAP =       0 NEXTRA =       0
 NCOPY  =       0

 Implicit solvent radii are ArgH and AspGluO modified Bondi2 radii (mbondi3)
 Replacing prmtop screening parameters with GBn2 (igb=8) values

--------------------------------------------------------------------------------
   2.  CONTROL  DATA  FOR  THE  RUN
--------------------------------------------------------------------------------

ACE

General flags:
     imin    =       0, nmropt  =       0

Nature and format of input:
     ntx     =       5, irest   =       1, ntrx    =       1

Nature and format of output:
     ntxo    =       2, ntpr    =     100, ntrx    =       1, ntwr    =     100
     iwrap   =       0, ntwx    =     100, ntwv    =       0, ntwe    =       0
     ioutfm  =       1, ntwprt  =       0, idecomp =       0, rbornstat=      0

Potential function:
     ntf     =       2, ntb     =       0, igb     =       8, nsnb    =      25
     ipol    =       0, gbsa    =       0, iesp    =       0
     dielc   =   1.00000, cut     = 999.00000, intdiel =   1.00000
     saltcon =   0.00000, offset  =   0.19514, surften =   0.00500
     rdt     =   0.00000, rgbmax  =  25.00000  extdiel =  78.50000
     alpb  =        0
     gbalphaH  =   0.78844, gbbetaH   =   0.79870,  gbgammaH  =    0.43733
     gbalphaC  =   0.73376, gbbetaC   =   0.50638,  gbgammaC  =    0.20584
     gbalphaN  =   0.50336, gbbetaN   =   0.31683,  gbgammaN  =    0.19292
     gbalphaOS =   0.86781, gbbetaOS  =   0.87664,  gbgammaOS =    0.38788
     gbalphaP  =   1.00000, gbbetaP   =   0.80000,  gbgammaP  =    4.85000
     gb_alpha_hnu  =   0.53705, gb_beta_hnu   =   0.36286,  gb_gamma_hnu  =    0.11670
     gb_alpha_cnu  =   0.33167, gb_beta_cnu   =   0.19684,  gb_gamma_cnu  =    0.09342
     gb_alpha_nnu  =   0.68631, gb_beta_nnu   =   0.46319,  gb_gamma_nnu  =    0.13872
     gb_alpha_onu  =   0.60634, gb_beta_onu   =   0.46301,  gb_gamma_onu  =    0.14226
     gb_alpha_pnu  =   0.41836, gb_beta_pnu   =   0.29005,  gb_gamma_pnu  =    0.10642

Frozen or restrained atoms:
     ibelly  =       0, ntr     =       1
     restraint_wt =  10.00000

Molecular dynamics:
     nstlim  =     20000, nscm    =         0, nrespa  =         1
     t       =   0.00000, dt      =   0.00100, vlimit  =  -1.00000

Langevin dynamics temperature regulation:
     ig      =  781692
     temp0   = 150.00000, tempi   = 100.00000, gamma_ln=   1.00000

SHAKE:
     ntc     =       2, jfastw  =       0
     tol     =   0.00001

    LOADING THE CONSTRAINED ATOMS AS GROUPS

   5.  REFERENCE ATOM COORDINATES

  ACE
     Mask :*; matches   105 atoms

--------------------------------------------------------------------------------
   3.  ATOMIC COORDINATES AND VELOCITIES
--------------------------------------------------------------------------------

ACE
 begin time read from input coords =    40.000 ps

 Number of triangulated 3-point waters found:        0

--------------------------------------------------------------------------------
   4.  RESULTS
 NSTEP =      100   TIME(PS) =      40.100  TEMP(K) =    96.31  PRESS =     0.0
 Etot   =      -109.9584  EKtot   =        24.5936  EPtot      =      -134.5520
 BOND   =         4.5434  ANGLE   =        13.9710  DIHED      =        10.2196
 UB     =         0.0000  IMP     =         0.0000  CMAP       =        -1.1102
 1-4 NB =        18.3560  1-4 EEL =       377.0188  VDWAALS    =       -15.3451
 EELEC  =      -322.1953  EGB     =      -227.1193  RESTRAINT  =         7.1091
 EAMBER (non-restraint)  =      -141.6611
 ------------------------------------------------------------------------------

      A V E R A G E S   O V E R     200 S T E P S

 NSTEP =    20000   TIME(PS) =      60.000  TEMP(K) =   144.54  PRESS =     0.0
 Etot   =       -81.4607  EKtot   =        36.9094  EPtot      =      -118.3701
 BOND   =         8.9061  ANGLE   =        21.2003  DIHED      =        12.1112
 UB     =         0.0000  IMP     =         0.0000  CMAP       =        -1.4294
 1-4 NB =        17.7651  1-4 EEL =       373.6899  VDWAALS    =       -14.7214
 EELEC  =      -318.5533  EGB     =      -229.0037  RESTRAINT  =        11.6650
 EAMBER (non-restraint)  =      -130.0351
 ------------------------------------------------------------------------------

      R M S  F L U C T U A T I O N S

 NSTEP =    20000   TIME(PS) =      60.000  TEMP(K) =    17.78  PRESS =     0.0
 Etot   =         7.6927  EKtot   =         4.5393  EPtot      =         4.6154
 BOND   =         1.7182  ANGLE   =         2.6987  DIHED      =         0.8871
 UB     =         0.0000  IMP     =         0.0000  CMAP       =         0.3012
 1-4 NB =         0.7873  1-4 EEL =         2.2980  VDWAALS    =         0.4458
 EELEC  =         2.3577  EGB     =         0.8985  RESTRAINT  =         1.7359
 EAMBER (non-restraint)  =         2.8796
 ------------------------------------------------------------------------------
