-------------------------------------------------------
          Amber 20 PMEMD                              2020
          -------------------------------------------------------

  [-O]verwriting output

File Assignments:

 Here is the input file:

Heating from 200 to 250
&cntrl
irest=1,ntx=5,
nstlim=20000,dt=0.001,
ntc=2,ntf=2,
ntt=3,gamma_ln=1,
tempi=200,temp0=250,
ntb=0,igb=8,
ntpr=100,ntwr=100,ntwx=100,
cut=999,ntr=1,restraint_wt=10,
restraintmask=':*'
/

Note: ig = -1. Setting random seed to   945560 based on wallclock time in
      microseconds.

--------------------------------------------------------------------------------
   1.  RESOURCE   USE:
--------------------------------------------------------------------------------

 NATOM  =     114 NTYPES =       8 NBONH =      65 MBONA  =      48
 NTHETH =     148 MTHETA =      62 NPHIH =     256 MPHIA  =     179
 NHPARM =       0 NPARM  =       0 NNB   =     620 NRES   =       8
 NBONA  =      48 NTHETA =      62 NPHIA =     179 NUMBND =      22
 NUMANG =      47 NPTRA  =      30 NATYP =      13 NPHB   =       0
 IFBOX  =       0 NMXRS  =      22 IFCAP =       0 NEXTRA =       0
 NCOPY  =       0

 Implicit solvent radii are ArgH and AspGluO modified Bondi2 radii (mbondi3)
 Replacing prmtop screening parameters with GBn2 (igb=8) values

--------------------------------------------------------------------------------
   2.  CONTROL  DATA  FOR  THE  RUN
--------------------------------------------------------------------------------

ACE

General flags:
     imin    =       0, nmropt  =       0

Nature and format of input:
     ntx     =       5, irest   =       1, ntrx    =       1

Nature and format of output:
     ntxo    =       2, ntpr    =     100, ntrx    =       1, ntwr    =     100
     iwrap   =       0, ntwx    =     100, ntwv    =       0, ntwe    =       0
     ioutfm  =       1, ntwprt  =       0, idecomp =       0, rbornstat=      0

Potential function:
     ntf     =       2, ntb     =       0, igb     =       8, nsnb    =      25
     ipol    =       0, gbsa    =       0, iesp    =       0
     dielc   =   1.00000, cut     = 999.00000, intdiel =   1.00000
     saltcon =   0.00000, offset  =   0.19514, surften =   0.00500
     rdt     =   0.00000, rgbmax  =  25.00000  extdiel =  78.50000
     alpb  =        0
     gbalphaH  =   0.78844, gbbetaH   =   0.79870,  gbgammaH  =    0.43733
     gbalphaC  =   0.73376, gbbetaC   =   0.50638,  gbgammaC  =    0.20584
     gbalphaN  =   0.50336, gbbetaN   =   0.31683,  gbgammaN  =    0.19292
     gbalphaOS =   0.86781, gbbetaOS  =   0.87664,  gbgammaOS =    0.38788
     gbalphaP  =   1.00000, gbbetaP   =   0.80000,  gbgammaP  =    4.85000
     gb_alpha_hnu  =   0.53705, gb_beta_hnu   =   0.36286,  gb_gamma_hnu  =    0.11670
     gb_alpha_cnu  =   0.33167, gb_beta_cnu   =   0.19684,  gb_gamma_cnu  =    0.09342
     gb_alpha_nnu  =   0.68631, gb_beta_nnu   =   0.46319,  gb_gamma_nnu  =    0.13872
     gb_alpha_onu  =   0.60634, gb_beta_onu   =   0.46301,  gb_gamma_onu  =    0.14226
     gb_alpha_pnu  =   0.41836, gb_beta_pnu   =   0.29005,  gb_gamma_pnu  =    0.10642

Frozen or restrained atoms:
     ibelly  =       0, ntr     =       1
     restraint_wt =  10.00000

Molecular dynamics:
     nstlim  =     20000, nscm    =         0, nrespa  =         1
     t       =   0.00000, dt      =   0.00100, vlimit  =  -1.00000

Langevin dynamics temperature regulation:
     ig      =  945560
     temp0   = 250.00000, tempi   = 200.00000, gamma_ln=   1.00000

SHAKE:
     ntc     =       2, jfastw  =       0
     tol     =   0.00001

    LOADING THE CONSTRAINED ATOMS AS GROUPS

   5.  REFERENCE ATOM COORDINATES

  ACE
     Mask :*; matches   114 atoms

--------------------------------------------------------------------------------
   3.  ATOMIC COORDINATES AND VELOCITIES
--------------------------------------------------------------------------------

ACE
 begin time read from input coords =    80.000 ps

 Number of triangulated 3-point waters found:        0

--------------------------------------------------------------------------------
   4.  RESULTS
 NSTEP =      100   TIME(PS) =      80.100  TEMP(K) =   179.80  PRESS =     0.0
 Etot   =       -77.6829  EKtot   =        49.4865  EPtot      =      -127.1693
 BOND   =        10.3772  ANGLE   =        29.8774  DIHED      =        14.0162
 UB     =         0.0000  IMP     =         0.0000  CMAP       =        -2.0706
 1-4 NB =        19.0166  1-4 EEL =       423.7857  VDWAALS    =       -16.1782
 EELEC  =      -403.0401  EGB     =      -220.6433  RESTRAINT  =        17.6898
 EAMBER (non-restraint)  =      -144.8591
 ------------------------------------------------------------------------------

      A V E R A G E S   O V E R     200 S T E P S

 NSTEP =    20000   TIME(PS) =     100.000  TEMP(K) =   247.18  PRESS =     0.0
 Etot   =       -40.0034  EKtot   =        68.0296  EPtot      =      -108.0330
 BOND   =        14.0897  ANGLE   =        38.7902  DIHED      =        15.6743
 UB     =         0.0000  IMP     =         0.0000  CMAP       =        -2.2183
 1-4 NB =        18.9711  1-4 EEL =       425.3324  VDWAALS    =       -14.3707
 EELEC  =      -404.4248  EGB     =      -221.2948  RESTRAINT  =        21.4180
 EAMBER (non-restraint)  =      -129.4510
 ------------------------------------------------------------------------------

      R M S  F L U C T U A T I O N S

 NSTEP =    20000   TIME(PS) =     100.000  TEMP(K) =    22.43  PRESS =     0.0
 Etot   =         9.5177  EKtot   =         6.1734  EPtot      =         6.2782
 BOND   =         2.6492  ANGLE   =         4.3177  DIHED      =         1.1082
 UB     =         0.0000  IMP     =         0.0000  CMAP       =         0.4498
 1-4 NB =         1.1638  1-4 EEL =         3.5238  VDWAALS    =         0.6949
 EELEC  =         3.3066  EGB     =         0.9376  RESTRAINT  =         2.5479
 EAMBER (non-restraint)  =         3.7303
 ------------------------------------------------------------------------------
