-------------------------------------------------------
          Amber 20 PMEMD                              2020
          -------------------------------------------------------

  [-O]verwriting output

File Assignments:

 Here is the input file:

Heating from 0 to 50
&cntrl
!irest=1,ntx=5,
nstlim=20000,dt=0.001,
ntc=2,ntf=2,
ntt=3,gamma_ln=1,
tempi=0,temp0=50,
ntb=0,igb=8,
ntpr=100,ntwr=100,ntwx=100,
cut=999,ntr=1,restraint_wt=10,
restraintmask=':*'
/

Note: ig = -1. Setting random seed to   903457 based on wallclock time in
      microseconds.

--------------------------------------------------------------------------------
   1.  RESOURCE   USE:
--------------------------------------------------------------------------------

 NATOM  =     114 NTYPES =       8 NBONH =      65 MBONA  =      48
 NTHETH =     148 MTHETA =      62 NPHIH =     256 MPHIA  =     179
 NHPARM =       0 NPARM  =       0 NNB   =     620 NRES   =       8
 NBONA  =      48 NTHETA =      62 NPHIA =     179 NUMBND =      22
 NUMANG =      47 NPTRA  =      30 NATYP =      13 NPHB   =       0
 IFBOX  =       0 NMXRS  =      22 IFCAP =       0 NEXTRA =       0
 NCOPY  =       0

 Implicit solvent radii are ArgH and AspGluO modified Bondi2 radii (mbondi3)
 Replacing prmtop screening parameters with GBn2 (igb=8) values

--------------------------------------------------------------------------------
   2.  CONTROL  DATA  FOR  THE  RUN
--------------------------------------------------------------------------------

ACE

General flags:
     imin    =       0, nmropt  =       0

Nature and format of input:
     ntx     =       1, irest   =       0, ntrx    =       1

Nature and format of output:
     ntxo    =       2, ntpr    =     100, ntrx    =       1, ntwr    =     100
     iwrap   =       0, ntwx    =     100, ntwv    =       0, ntwe    =       0
     ioutfm  =       1, ntwprt  =       0, idecomp =       0, rbornstat=      0

Potential function:
     ntf     =       2, ntb     =       0, igb     =       8, nsnb    =      25
     ipol    =       0, gbsa    =       0, iesp    =       0
     dielc   =   1.00000, cut     = 999.00000, intdiel =   1.00000
     saltcon =   0.00000, offset  =   0.19514, surften =   0.00500
     rdt     =   0.00000, rgbmax  =  25.00000  extdiel =  78.50000
     alpb  =        0
     gbalphaH  =   0.78844, gbbetaH   =   0.79870,  gbgammaH  =    0.43733
     gbalphaC  =   0.73376, gbbetaC   =   0.50638,  gbgammaC  =    0.20584
     gbalphaN  =   0.50336, gbbetaN   =   0.31683,  gbgammaN  =    0.19292
     gbalphaOS =   0.86781, gbbetaOS  =   0.87664,  gbgammaOS =    0.38788
     gbalphaP  =   1.00000, gbbetaP   =   0.80000,  gbgammaP  =    4.85000
     gb_alpha_hnu  =   0.53705, gb_beta_hnu   =   0.36286,  gb_gamma_hnu  =    0.11670
     gb_alpha_cnu  =   0.33167, gb_beta_cnu   =   0.19684,  gb_gamma_cnu  =    0.09342
     gb_alpha_nnu  =   0.68631, gb_beta_nnu   =   0.46319,  gb_gamma_nnu  =    0.13872
     gb_alpha_onu  =   0.60634, gb_beta_onu   =   0.46301,  gb_gamma_onu  =    0.14226
     gb_alpha_pnu  =   0.41836, gb_beta_pnu   =   0.29005,  gb_gamma_pnu  =    0.10642

Frozen or restrained atoms:
     ibelly  =       0, ntr     =       1
     restraint_wt =  10.00000

Molecular dynamics:
     nstlim  =     20000, nscm    =         0, nrespa  =         1
     t       =   0.00000, dt      =   0.00100, vlimit  =  -1.00000

Langevin dynamics temperature regulation:
     ig      =  903457
     temp0   =  50.00000, tempi   =   0.00000, gamma_ln=   1.00000

SHAKE:
     ntc     =       2, jfastw  =       0
     tol     =   0.00001

    LOADING THE CONSTRAINED ATOMS AS GROUPS

   5.  REFERENCE ATOM COORDINATES

  ACE
     Mask :*; matches   114 atoms

--------------------------------------------------------------------------------
   3.  ATOMIC COORDINATES AND VELOCITIES
--------------------------------------------------------------------------------

ACE
 begin time read from input coords =     0.000 ps

 Number of triangulated 3-point waters found:        0

--------------------------------------------------------------------------------
   4.  RESULTS
 NSTEP =        0   TIME(PS) =       0.000  TEMP(K) =     0.00  PRESS =     0.0
 Etot   =      -182.2446  EKtot   =         0.0000  EPtot      =      -182.2446
 BOND   =         2.8148  ANGLE   =         5.7317  DIHED      =        10.8177
 UB     =         0.0000  IMP     =         0.0000  CMAP       =        -1.9034
 1-4 NB =        16.3870  1-4 EEL =       424.8972  VDWAALS    =       -15.6317
 EELEC  =      -404.0470  EGB     =      -221.3108  RESTRAINT  =         0.0000
 ------------------------------------------------------------------------------

      A V E R A G E S   O V E R     200 S T E P S

 NSTEP =    20000   TIME(PS) =      20.000  TEMP(K) =    47.50  PRESS =     0.0
 Etot   =      -155.9685  EKtot   =        13.0724  EPtot      =      -169.0409
 BOND   =         4.9445  ANGLE   =        11.9306  DIHED      =        11.6692
 UB     =         0.0000  IMP     =         0.0000  CMAP       =        -1.8747
 1-4 NB =        16.6788  1-4 EEL =       424.4704  VDWAALS    =       -15.4747
 EELEC  =      -403.4204  EGB     =      -221.5998  RESTRAINT  =         3.6352
 EAMBER (non-restraint)  =      -172.6761
 ------------------------------------------------------------------------------

      R M S  F L U C T U A T I O N S

 NSTEP =    20000   TIME(PS) =      20.000  TEMP(K) =     7.83  PRESS =     0.0
 Etot   =         4.0301  EKtot   =         2.1539  EPtot      =         2.2020
 BOND   =         0.8427  ANGLE   =         1.2449  DIHED      =         0.2748
 UB     =         0.0000  IMP     =         0.0000  CMAP       =         0.1824
 1-4 NB =         0.5030  1-4 EEL =         1.5987  VDWAALS    =         0.2456
 EELEC  =         1.7342  EGB     =         0.5205  RESTRAINT  =         0.7603
 EAMBER (non-restraint)  =         1.4416
 ------------------------------------------------------------------------------
