-------------------------------------------------------
          Amber 20 PMEMD                              2020
          -------------------------------------------------------

  [-O]verwriting output

File Assignments:

 Here is the input file:

Heating from 250 to 300
&cntrl
irest=1,ntx=5,
nstlim=100000,dt=0.001,
ntc=2,ntf=2,
ntt=3,gamma_ln=1,
tempi=250,temp0=300,
ntb=0,igb=8,
ntpr=100,ntwr=100,ntwx=100,
cut=999,ntr=1,restraint_wt=10,
restraintmask=':*'
/

Note: ig = -1. Setting random seed to   594306 based on wallclock time in
      microseconds.

--------------------------------------------------------------------------------
   1.  RESOURCE   USE:
--------------------------------------------------------------------------------

 NATOM  =     153 NTYPES =       9 NBONH =      85 MBONA  =      68
 NTHETH =     194 MTHETA =      88 NPHIH =     343 MPHIA  =     255
 NHPARM =       0 NPARM  =       0 NNB   =     838 NRES   =      10
 NBONA  =      68 NTHETA =      88 NPHIA =     255 NUMBND =      26
 NUMANG =      57 NPTRA  =      47 NATYP =      15 NPHB   =       0
 IFBOX  =       0 NMXRS  =      22 IFCAP =       0 NEXTRA =       0
 NCOPY  =       0

 Implicit solvent radii are ArgH and AspGluO modified Bondi2 radii (mbondi3)
 Replacing prmtop screening parameters with GBn2 (igb=8) values

--------------------------------------------------------------------------------
   2.  CONTROL  DATA  FOR  THE  RUN
--------------------------------------------------------------------------------

ACE

General flags:
     imin    =       0, nmropt  =       0

Nature and format of input:
     ntx     =       5, irest   =       1, ntrx    =       1

Nature and format of output:
     ntxo    =       2, ntpr    =     100, ntrx    =       1, ntwr    =     100
     iwrap   =       0, ntwx    =     100, ntwv    =       0, ntwe    =       0
     ioutfm  =       1, ntwprt  =       0, idecomp =       0, rbornstat=      0

Potential function:
     ntf     =       2, ntb     =       0, igb     =       8, nsnb    =      25
     ipol    =       0, gbsa    =       0, iesp    =       0
     dielc   =   1.00000, cut     = 999.00000, intdiel =   1.00000
     saltcon =   0.00000, offset  =   0.19514, surften =   0.00500
     rdt     =   0.00000, rgbmax  =  25.00000  extdiel =  78.50000
     alpb  =        0
     gbalphaH  =   0.78844, gbbetaH   =   0.79870,  gbgammaH  =    0.43733
     gbalphaC  =   0.73376, gbbetaC   =   0.50638,  gbgammaC  =    0.20584
     gbalphaN  =   0.50336, gbbetaN   =   0.31683,  gbgammaN  =    0.19292
     gbalphaOS =   0.86781, gbbetaOS  =   0.87664,  gbgammaOS =    0.38788
     gbalphaP  =   1.00000, gbbetaP   =   0.80000,  gbgammaP  =    4.85000
     gb_alpha_hnu  =   0.53705, gb_beta_hnu   =   0.36286,  gb_gamma_hnu  =    0.11670
     gb_alpha_cnu  =   0.33167, gb_beta_cnu   =   0.19684,  gb_gamma_cnu  =    0.09342
     gb_alpha_nnu  =   0.68631, gb_beta_nnu   =   0.46319,  gb_gamma_nnu  =    0.13872
     gb_alpha_onu  =   0.60634, gb_beta_onu   =   0.46301,  gb_gamma_onu  =    0.14226
     gb_alpha_pnu  =   0.41836, gb_beta_pnu   =   0.29005,  gb_gamma_pnu  =    0.10642

Frozen or restrained atoms:
     ibelly  =       0, ntr     =       1
     restraint_wt =  10.00000

Molecular dynamics:
     nstlim  =    100000, nscm    =         0, nrespa  =         1
     t       =   0.00000, dt      =   0.00100, vlimit  =  -1.00000

Langevin dynamics temperature regulation:
     ig      =  594306
     temp0   = 300.00000, tempi   = 250.00000, gamma_ln=   1.00000

SHAKE:
     ntc     =       2, jfastw  =       0
     tol     =   0.00001

    LOADING THE CONSTRAINED ATOMS AS GROUPS

   5.  REFERENCE ATOM COORDINATES

  ACE
     Mask :*; matches   153 atoms

--------------------------------------------------------------------------------
   3.  ATOMIC COORDINATES AND VELOCITIES
--------------------------------------------------------------------------------

ACE
 begin time read from input coords =   100.000 ps

 Number of triangulated 3-point waters found:        0

--------------------------------------------------------------------------------
   4.  RESULTS
 NSTEP =      100   TIME(PS) =     100.100  TEMP(K) =   227.54  PRESS =     0.0
 Etot   =       -50.4394  EKtot   =        84.5567  EPtot      =      -134.9961
 BOND   =        13.9350  ANGLE   =        47.6497  DIHED      =        20.5417
 UB     =         0.0000  IMP     =         0.0000  CMAP       =        -1.7554
 1-4 NB =        28.0557  1-4 EEL =       593.2085  VDWAALS    =       -23.8333
 EELEC  =      -456.4966  EGB     =      -380.4593  RESTRAINT  =        24.1579
 EAMBER (non-restraint)  =      -159.1540
 ------------------------------------------------------------------------------

      A V E R A G E S   O V E R    1000 S T E P S

 NSTEP =   100000   TIME(PS) =     200.000  TEMP(K) =   304.34  PRESS =     0.0
 Etot   =        11.8096  EKtot   =       113.0926  EPtot      =      -101.2830
 BOND   =        23.3697  ANGLE   =        61.3992  DIHED      =        21.9495
 UB     =         0.0000  IMP     =         0.0000  CMAP       =        -1.9729
 1-4 NB =        27.0679  1-4 EEL =       588.8260  VDWAALS    =       -23.2287
 EELEC  =      -453.1369  EGB     =      -381.7620  RESTRAINT  =        36.2052
 EAMBER (non-restraint)  =      -137.4882
 ------------------------------------------------------------------------------

      R M S  F L U C T U A T I O N S

 NSTEP =   100000   TIME(PS) =     200.000  TEMP(K) =    23.41  PRESS =     0.0
 Etot   =        12.7423  EKtot   =         8.6980  EPtot      =         8.5496
 BOND   =         3.8341  ANGLE   =         5.7754  DIHED      =         1.8228
 UB     =         0.0000  IMP     =         0.0000  CMAP       =         0.5737
 1-4 NB =         1.4480  1-4 EEL =         4.0518  VDWAALS    =         0.9400
 EELEC  =         4.2752  EGB     =         1.6303  RESTRAINT  =         3.8752
 EAMBER (non-restraint)  =         4.6744
 ------------------------------------------------------------------------------
