-------------------------------------------------------
          Amber 20 PMEMD                              2020
          -------------------------------------------------------

  [-O]verwriting output

File Assignments:

 Here is the input file:

Heating from 150 to 200
&cntrl
irest=1,ntx=5,
nstlim=20000,dt=0.001,
ntc=2,ntf=2,
ntt=3,gamma_ln=1,
tempi=150,temp0=200,
ntb=0,igb=8,
ntpr=100,ntwr=100,ntwx=100,
cut=999,ntr=1,restraint_wt=10,
restraintmask=':*'
/

Note: ig = -1. Setting random seed to   377202 based on wallclock time in
      microseconds.

--------------------------------------------------------------------------------
   1.  RESOURCE   USE:
--------------------------------------------------------------------------------

 NATOM  =     153 NTYPES =       9 NBONH =      85 MBONA  =      68
 NTHETH =     194 MTHETA =      88 NPHIH =     343 MPHIA  =     255
 NHPARM =       0 NPARM  =       0 NNB   =     838 NRES   =      10
 NBONA  =      68 NTHETA =      88 NPHIA =     255 NUMBND =      26
 NUMANG =      57 NPTRA  =      47 NATYP =      15 NPHB   =       0
 IFBOX  =       0 NMXRS  =      22 IFCAP =       0 NEXTRA =       0
 NCOPY  =       0

 Implicit solvent radii are ArgH and AspGluO modified Bondi2 radii (mbondi3)
 Replacing prmtop screening parameters with GBn2 (igb=8) values

--------------------------------------------------------------------------------
   2.  CONTROL  DATA  FOR  THE  RUN
--------------------------------------------------------------------------------

ACE

General flags:
     imin    =       0, nmropt  =       0

Nature and format of input:
     ntx     =       5, irest   =       1, ntrx    =       1

Nature and format of output:
     ntxo    =       2, ntpr    =     100, ntrx    =       1, ntwr    =     100
     iwrap   =       0, ntwx    =     100, ntwv    =       0, ntwe    =       0
     ioutfm  =       1, ntwprt  =       0, idecomp =       0, rbornstat=      0

Potential function:
     ntf     =       2, ntb     =       0, igb     =       8, nsnb    =      25
     ipol    =       0, gbsa    =       0, iesp    =       0
     dielc   =   1.00000, cut     = 999.00000, intdiel =   1.00000
     saltcon =   0.00000, offset  =   0.19514, surften =   0.00500
     rdt     =   0.00000, rgbmax  =  25.00000  extdiel =  78.50000
     alpb  =        0
     gbalphaH  =   0.78844, gbbetaH   =   0.79870,  gbgammaH  =    0.43733
     gbalphaC  =   0.73376, gbbetaC   =   0.50638,  gbgammaC  =    0.20584
     gbalphaN  =   0.50336, gbbetaN   =   0.31683,  gbgammaN  =    0.19292
     gbalphaOS =   0.86781, gbbetaOS  =   0.87664,  gbgammaOS =    0.38788
     gbalphaP  =   1.00000, gbbetaP   =   0.80000,  gbgammaP  =    4.85000
     gb_alpha_hnu  =   0.53705, gb_beta_hnu   =   0.36286,  gb_gamma_hnu  =    0.11670
     gb_alpha_cnu  =   0.33167, gb_beta_cnu   =   0.19684,  gb_gamma_cnu  =    0.09342
     gb_alpha_nnu  =   0.68631, gb_beta_nnu   =   0.46319,  gb_gamma_nnu  =    0.13872
     gb_alpha_onu  =   0.60634, gb_beta_onu   =   0.46301,  gb_gamma_onu  =    0.14226
     gb_alpha_pnu  =   0.41836, gb_beta_pnu   =   0.29005,  gb_gamma_pnu  =    0.10642

Frozen or restrained atoms:
     ibelly  =       0, ntr     =       1
     restraint_wt =  10.00000

Molecular dynamics:
     nstlim  =     20000, nscm    =         0, nrespa  =         1
     t       =   0.00000, dt      =   0.00100, vlimit  =  -1.00000

Langevin dynamics temperature regulation:
     ig      =  377202
     temp0   = 200.00000, tempi   = 150.00000, gamma_ln=   1.00000

SHAKE:
     ntc     =       2, jfastw  =       0
     tol     =   0.00001

    LOADING THE CONSTRAINED ATOMS AS GROUPS

   5.  REFERENCE ATOM COORDINATES

  ACE
     Mask :*; matches   153 atoms

--------------------------------------------------------------------------------
   3.  ATOMIC COORDINATES AND VELOCITIES
--------------------------------------------------------------------------------

ACE
 begin time read from input coords =    60.000 ps

 Number of triangulated 3-point waters found:        0

--------------------------------------------------------------------------------
   4.  RESULTS
 NSTEP =      100   TIME(PS) =      60.100  TEMP(K) =   133.96  PRESS =     0.0
 Etot   =      -122.8239  EKtot   =        49.7810  EPtot      =      -172.6050
 BOND   =        12.1635  ANGLE   =        35.2123  DIHED      =        16.0098
 UB     =         0.0000  IMP     =         0.0000  CMAP       =        -3.3215
 1-4 NB =        25.4891  1-4 EEL =       588.5033  VDWAALS    =       -24.2928
 EELEC  =      -453.2298  EGB     =      -381.9642  RESTRAINT  =        12.8254
 EAMBER (non-restraint)  =      -185.4303
 ------------------------------------------------------------------------------

      A V E R A G E S   O V E R     200 S T E P S

 NSTEP =    20000   TIME(PS) =      80.000  TEMP(K) =   194.02  PRESS =     0.0
 Etot   =       -76.0796  EKtot   =        72.0986  EPtot      =      -148.1782
 BOND   =        16.7158  ANGLE   =        41.4032  DIHED      =        18.0396
 UB     =         0.0000  IMP     =         0.0000  CMAP       =        -2.3746
 1-4 NB =        25.9048  1-4 EEL =       588.6401  VDWAALS    =       -23.8295
 EELEC  =      -452.8780  EGB     =      -382.0543  RESTRAINT  =        22.2547
 EAMBER (non-restraint)  =      -170.4329
 ------------------------------------------------------------------------------

      R M S  F L U C T U A T I O N S

 NSTEP =    20000   TIME(PS) =      80.000  TEMP(K) =    16.38  PRESS =     0.0
 Etot   =        10.2110  EKtot   =         6.0867  EPtot      =         6.6582
 BOND   =         2.4884  ANGLE   =         4.2047  DIHED      =         0.9949
 UB     =         0.0000  IMP     =         0.0000  CMAP       =         0.4982
 1-4 NB =         1.1000  1-4 EEL =         3.2109  VDWAALS    =         0.7247
 EELEC  =         3.5804  EGB     =         1.4437  RESTRAINT  =         2.9548
 EAMBER (non-restraint)  =         3.7034
 ------------------------------------------------------------------------------
