-------------------------------------------------------
          Amber 20 PMEMD                              2020
          -------------------------------------------------------

  [-O]verwriting output

File Assignments:

 Here is the input file:

Heating from 250 to 300
&cntrl
irest=1,ntx=5,
nstlim=100000,dt=0.001,
ntc=2,ntf=2,
ntt=3,gamma_ln=1,
tempi=250,temp0=300,
ntb=0,igb=8,
ntpr=100,ntwr=100,ntwx=100,
cut=999,ntr=1,restraint_wt=10,
restraintmask=':*'
/

Note: ig = -1. Setting random seed to   101284 based on wallclock time in
      microseconds.

--------------------------------------------------------------------------------
   1.  RESOURCE   USE:
--------------------------------------------------------------------------------

 NATOM  =      93 NTYPES =       9 NBONH =      50 MBONA  =      43
 NTHETH =     112 MTHETA =      56 NPHIH =     204 MPHIA  =     158
 NHPARM =       0 NPARM  =       0 NNB   =     496 NRES   =       7
 NBONA  =      43 NTHETA =      56 NPHIA =     158 NUMBND =      25
 NUMANG =      52 NPTRA  =      40 NATYP =      15 NPHB   =       0
 IFBOX  =       0 NMXRS  =      22 IFCAP =       0 NEXTRA =       0
 NCOPY  =       0

 Implicit solvent radii are ArgH and AspGluO modified Bondi2 radii (mbondi3)
 Replacing prmtop screening parameters with GBn2 (igb=8) values

--------------------------------------------------------------------------------
   2.  CONTROL  DATA  FOR  THE  RUN
--------------------------------------------------------------------------------

ACE

General flags:
     imin    =       0, nmropt  =       0

Nature and format of input:
     ntx     =       5, irest   =       1, ntrx    =       1

Nature and format of output:
     ntxo    =       2, ntpr    =     100, ntrx    =       1, ntwr    =     100
     iwrap   =       0, ntwx    =     100, ntwv    =       0, ntwe    =       0
     ioutfm  =       1, ntwprt  =       0, idecomp =       0, rbornstat=      0

Potential function:
     ntf     =       2, ntb     =       0, igb     =       8, nsnb    =      25
     ipol    =       0, gbsa    =       0, iesp    =       0
     dielc   =   1.00000, cut     = 999.00000, intdiel =   1.00000
     saltcon =   0.00000, offset  =   0.19514, surften =   0.00500
     rdt     =   0.00000, rgbmax  =  25.00000  extdiel =  78.50000
     alpb  =        0
     gbalphaH  =   0.78844, gbbetaH   =   0.79870,  gbgammaH  =    0.43733
     gbalphaC  =   0.73376, gbbetaC   =   0.50638,  gbgammaC  =    0.20584
     gbalphaN  =   0.50336, gbbetaN   =   0.31683,  gbgammaN  =    0.19292
     gbalphaOS =   0.86781, gbbetaOS  =   0.87664,  gbgammaOS =    0.38788
     gbalphaP  =   1.00000, gbbetaP   =   0.80000,  gbgammaP  =    4.85000
     gb_alpha_hnu  =   0.53705, gb_beta_hnu   =   0.36286,  gb_gamma_hnu  =    0.11670
     gb_alpha_cnu  =   0.33167, gb_beta_cnu   =   0.19684,  gb_gamma_cnu  =    0.09342
     gb_alpha_nnu  =   0.68631, gb_beta_nnu   =   0.46319,  gb_gamma_nnu  =    0.13872
     gb_alpha_onu  =   0.60634, gb_beta_onu   =   0.46301,  gb_gamma_onu  =    0.14226
     gb_alpha_pnu  =   0.41836, gb_beta_pnu   =   0.29005,  gb_gamma_pnu  =    0.10642

Frozen or restrained atoms:
     ibelly  =       0, ntr     =       1
     restraint_wt =  10.00000

Molecular dynamics:
     nstlim  =    100000, nscm    =         0, nrespa  =         1
     t       =   0.00000, dt      =   0.00100, vlimit  =  -1.00000

Langevin dynamics temperature regulation:
     ig      =  101284
     temp0   = 300.00000, tempi   = 250.00000, gamma_ln=   1.00000

SHAKE:
     ntc     =       2, jfastw  =       0
     tol     =   0.00001

    LOADING THE CONSTRAINED ATOMS AS GROUPS

   5.  REFERENCE ATOM COORDINATES

  ACE
     Mask :*; matches    93 atoms

--------------------------------------------------------------------------------
   3.  ATOMIC COORDINATES AND VELOCITIES
--------------------------------------------------------------------------------

ACE
 begin time read from input coords =   100.000 ps

 Number of triangulated 3-point waters found:        0

--------------------------------------------------------------------------------
   4.  RESULTS
 NSTEP =      100   TIME(PS) =     100.100  TEMP(K) =   213.23  PRESS =     0.0
 Etot   =       -40.3066  EKtot   =        48.5166  EPtot      =       -88.8232
 BOND   =         9.6811  ANGLE   =        20.0449  DIHED      =        10.9362
 UB     =         0.0000  IMP     =         0.0000  CMAP       =        -0.9403
 1-4 NB =        16.4763  1-4 EEL =       332.2584  VDWAALS    =       -14.8533
 EELEC  =      -354.3045  EGB     =      -120.9557  RESTRAINT  =        12.8337
 EAMBER (non-restraint)  =      -101.6569
 ------------------------------------------------------------------------------

      A V E R A G E S   O V E R    1000 S T E P S

 NSTEP =   100000   TIME(PS) =     200.000  TEMP(K) =   294.59  PRESS =     0.0
 Etot   =         9.4812  EKtot   =        67.0293  EPtot      =       -57.5481
 BOND   =        14.9377  ANGLE   =        33.6567  DIHED      =        14.5860
 UB     =         0.0000  IMP     =         0.0000  CMAP       =        -1.1554
 1-4 NB =        17.4668  1-4 EEL =       331.6064  VDWAALS    =       -14.8297
 EELEC  =      -352.4211  EGB     =      -121.9696  RESTRAINT  =        20.5742
 EAMBER (non-restraint)  =       -78.1223
 ------------------------------------------------------------------------------

      R M S  F L U C T U A T I O N S

 NSTEP =   100000   TIME(PS) =     200.000  TEMP(K) =    29.57  PRESS =     0.0
 Etot   =         9.8051  EKtot   =         6.7292  EPtot      =         6.6946
 BOND   =         2.9501  ANGLE   =         4.1684  DIHED      =         1.6285
 UB     =         0.0000  IMP     =         0.0000  CMAP       =         0.4095
 1-4 NB =         1.1604  1-4 EEL =         3.0390  VDWAALS    =         0.6702
 EELEC  =         3.1292  EGB     =         1.0448  RESTRAINT  =         2.9426
 EAMBER (non-restraint)  =         3.7520
 ------------------------------------------------------------------------------
