-------------------------------------------------------
          Amber 20 PMEMD                              2020
          -------------------------------------------------------

  [-O]verwriting output

File Assignments:

 Here is the input file:

Heating from 50 to 100
&cntrl
irest=1,ntx=5,
nstlim=20000,dt=0.001,
ntc=2,ntf=2,
ntt=3,gamma_ln=1,
tempi=50,temp0=100,
ntb=0,igb=8,
ntpr=100,ntwr=100,ntwx=100,
cut=999,ntr=1,restraint_wt=10,
restraintmask=':*'
/

Note: ig = -1. Setting random seed to   445553 based on wallclock time in
      microseconds.

--------------------------------------------------------------------------------
   1.  RESOURCE   USE:
--------------------------------------------------------------------------------

 NATOM  =      93 NTYPES =       9 NBONH =      50 MBONA  =      43
 NTHETH =     112 MTHETA =      56 NPHIH =     204 MPHIA  =     158
 NHPARM =       0 NPARM  =       0 NNB   =     496 NRES   =       7
 NBONA  =      43 NTHETA =      56 NPHIA =     158 NUMBND =      25
 NUMANG =      52 NPTRA  =      40 NATYP =      15 NPHB   =       0
 IFBOX  =       0 NMXRS  =      22 IFCAP =       0 NEXTRA =       0
 NCOPY  =       0

 Implicit solvent radii are ArgH and AspGluO modified Bondi2 radii (mbondi3)
 Replacing prmtop screening parameters with GBn2 (igb=8) values

--------------------------------------------------------------------------------
   2.  CONTROL  DATA  FOR  THE  RUN
--------------------------------------------------------------------------------

ACE

General flags:
     imin    =       0, nmropt  =       0

Nature and format of input:
     ntx     =       5, irest   =       1, ntrx    =       1

Nature and format of output:
     ntxo    =       2, ntpr    =     100, ntrx    =       1, ntwr    =     100
     iwrap   =       0, ntwx    =     100, ntwv    =       0, ntwe    =       0
     ioutfm  =       1, ntwprt  =       0, idecomp =       0, rbornstat=      0

Potential function:
     ntf     =       2, ntb     =       0, igb     =       8, nsnb    =      25
     ipol    =       0, gbsa    =       0, iesp    =       0
     dielc   =   1.00000, cut     = 999.00000, intdiel =   1.00000
     saltcon =   0.00000, offset  =   0.19514, surften =   0.00500
     rdt     =   0.00000, rgbmax  =  25.00000  extdiel =  78.50000
     alpb  =        0
     gbalphaH  =   0.78844, gbbetaH   =   0.79870,  gbgammaH  =    0.43733
     gbalphaC  =   0.73376, gbbetaC   =   0.50638,  gbgammaC  =    0.20584
     gbalphaN  =   0.50336, gbbetaN   =   0.31683,  gbgammaN  =    0.19292
     gbalphaOS =   0.86781, gbbetaOS  =   0.87664,  gbgammaOS =    0.38788
     gbalphaP  =   1.00000, gbbetaP   =   0.80000,  gbgammaP  =    4.85000
     gb_alpha_hnu  =   0.53705, gb_beta_hnu   =   0.36286,  gb_gamma_hnu  =    0.11670
     gb_alpha_cnu  =   0.33167, gb_beta_cnu   =   0.19684,  gb_gamma_cnu  =    0.09342
     gb_alpha_nnu  =   0.68631, gb_beta_nnu   =   0.46319,  gb_gamma_nnu  =    0.13872
     gb_alpha_onu  =   0.60634, gb_beta_onu   =   0.46301,  gb_gamma_onu  =    0.14226
     gb_alpha_pnu  =   0.41836, gb_beta_pnu   =   0.29005,  gb_gamma_pnu  =    0.10642

Frozen or restrained atoms:
     ibelly  =       0, ntr     =       1
     restraint_wt =  10.00000

Molecular dynamics:
     nstlim  =     20000, nscm    =         0, nrespa  =         1
     t       =   0.00000, dt      =   0.00100, vlimit  =  -1.00000

Langevin dynamics temperature regulation:
     ig      =  445553
     temp0   = 100.00000, tempi   =  50.00000, gamma_ln=   1.00000

SHAKE:
     ntc     =       2, jfastw  =       0
     tol     =   0.00001

    LOADING THE CONSTRAINED ATOMS AS GROUPS

   5.  REFERENCE ATOM COORDINATES

  ACE
     Mask :*; matches    93 atoms

--------------------------------------------------------------------------------
   3.  ATOMIC COORDINATES AND VELOCITIES
--------------------------------------------------------------------------------

ACE
 begin time read from input coords =    20.000 ps

 Number of triangulated 3-point waters found:        0

--------------------------------------------------------------------------------
   4.  RESULTS
 NSTEP =      100   TIME(PS) =      20.100  TEMP(K) =    47.57  PRESS =     0.0
 Etot   =      -107.5189  EKtot   =        10.8234  EPtot      =      -118.3422
 BOND   =         4.8545  ANGLE   =         8.0536  DIHED      =         8.8742
 UB     =         0.0000  IMP     =         0.0000  CMAP       =        -1.3746
 1-4 NB =        16.1903  1-4 EEL =       333.8819  VDWAALS    =       -15.5968
 EELEC  =      -355.9611  EGB     =      -120.7876  RESTRAINT  =         3.5234
 EAMBER (non-restraint)  =      -121.8657
 ------------------------------------------------------------------------------

      A V E R A G E S   O V E R     200 S T E P S

 NSTEP =    20000   TIME(PS) =      40.000  TEMP(K) =    93.63  PRESS =     0.0
 Etot   =       -86.0803  EKtot   =        21.3043  EPtot      =      -107.3846
 BOND   =         5.9010  ANGLE   =        13.6052  DIHED      =         9.6836
 UB     =         0.0000  IMP     =         0.0000  CMAP       =        -1.4061
 1-4 NB =        16.4769  1-4 EEL =       334.0196  VDWAALS    =       -15.7681
 EELEC  =      -354.8205  EGB     =      -121.4831  RESTRAINT  =         6.4070
 EAMBER (non-restraint)  =      -113.7916
 ------------------------------------------------------------------------------

      R M S  F L U C T U A T I O N S

 NSTEP =    20000   TIME(PS) =      40.000  TEMP(K) =    11.77  PRESS =     0.0
 Etot   =         4.5739  EKtot   =         2.6792  EPtot      =         2.6674
 BOND   =         1.0763  ANGLE   =         1.7695  DIHED      =         0.4980
 UB     =         0.0000  IMP     =         0.0000  CMAP       =         0.2034
 1-4 NB =         0.6771  1-4 EEL =         1.6963  VDWAALS    =         0.3078
 EELEC  =         1.8186  EGB     =         0.6185  RESTRAINT  =         0.9556
 EAMBER (non-restraint)  =         1.7118
 ------------------------------------------------------------------------------
